<?xml version="1.0" encoding="UTF-8"?>

<!-- generated on 2026-03-13T13:04:42.384659+05:00 by Eclipse SUMO netedit 1.26.0
<neteditConfiguration xmlns:xsi="http://www.w3.org/2001/XMLSchema-instance" xsi:noNamespaceSchemaLocation="http://sumo.dlr.de/xsd/neteditConfiguration.xsd">

    <input>
        <sumocfg-file value="D:\StudyFiles\SumoProjects\ExperimentsDraft\CarDetectionUsingE2\Test1.sumocfg"/>
        <additional-files value="D:\StudyFiles\SumoProjects\ExperimentsDraft\CarDetectionUsingE2\Test1.add.xml"/>
        <route-files value="D:\StudyFiles\SumoProjects\ExperimentsDraft\CarDetectionUsingE2\Test1.rou.xml"/>
        <sumo-net-file value="D:\StudyFiles\SumoProjects\ExperimentsDraft\CarDetectionUsingE2\Test1.net.xml"/>
    </input>

    <output>
        <output-file value="D:\StudyFiles\SumoProjects\ExperimentsDraft\CarDetectionUsingE2\Test1.net.xml"/>
    </output>

    <processing>
        <geometry.min-radius.fix.railways value="false"/>
        <geometry.avoid-overlap value="false"/>
        <geometry.max-grade.fix value="false"/>
        <offset.disable-normalization value="true"/>
        <lefthand value="0"/>
    </processing>

    <junctions>
        <no-turnarounds value="true"/>
        <junctions.corner-detail value="5"/>
        <junctions.limit-turn-speed value="5.50"/>
        <rectangular-lane-cut value="0"/>
    </junctions>

    <pedestrian>
        <walkingareas value="0"/>
    </pedestrian>

</neteditConfiguration>
-->

<net version="1.20" junctionCornerDetail="5" limitTurnSpeed="5.50" avoidOverlap="0" xmlns:xsi="http://www.w3.org/2001/XMLSchema-instance" xsi:noNamespaceSchemaLocation="http://sumo.dlr.de/xsd/net_file.xsd">

    <location netOffset="0.00,0.00" convBoundary="-84.06,-104.82,113.78,48.74" origBoundary="-10000000000.00,-10000000000.00,10000000000.00,10000000000.00" projParameter="!"/>

    <edge id=":J6_0" function="internal">
        <lane id=":J6_0_0" index="0" speed="6.52" length="9.02" shape="9.32,-27.54 9.60,-25.09 10.60,-23.31 12.32,-22.20 14.75,-21.77"/>
    </edge>
    <edge id=":J6_1" function="internal">
        <lane id=":J6_1_0" index="0" speed="13.89" length="11.16" shape="9.32,-27.54 8.99,-16.38"/>
    </edge>
    <edge id=":J6_2" function="internal">
        <lane id=":J6_2_0" index="0" speed="13.89" length="11.18" shape="3.58,-22.16 14.75,-21.77"/>
    </edge>
    <edge id=":J6_3" function="internal">
        <lane id=":J6_3_0" index="0" speed="6.51" length="9.02" shape="3.58,-22.16 6.02,-21.72 7.74,-20.61 8.73,-18.83 8.99,-16.38"/>
    </edge>

    <edge id="E2" from="J4" to="J6" priority="-1">
        <lane id="E2_0" index="0" speed="13.89" length="87.65" shape="-84.00,-25.49 3.58,-22.16"/>
    </edge>
    <edge id="E2.84" from="J6" to="J5" priority="-1">
        <lane id="E2.84_0" index="0" speed="13.89" length="99.14" shape="14.75,-21.77 113.83,-18.51"/>
    </edge>
    <edge id="E3" from="J7" to="J6" priority="-1">
        <lane id="E3_0" index="0" speed="13.89" length="77.27" shape="11.33,-104.78 9.32,-27.54"/>
    </edge>
    <edge id="E4" from="J6" to="J8" priority="-1">
        <lane id="E4_0" index="0" speed="13.89" length="65.22" shape="8.99,-16.38 6.75,48.80"/>
    </edge>

    <tlLogic id="J6" type="static" programID="0" offset="0">
        <phase duration="90" state="rrrr"/>
    </tlLogic>

    <junction id="J4" type="dead_end" x="-84.06" y="-23.89" incLanes="" intLanes="" shape="-84.06,-23.89 -83.94,-27.09"/>
    <junction id="J5" type="dead_end" x="113.78" y="-16.91" incLanes="E2.84_0" intLanes="" shape="113.89,-20.11 113.78,-16.91"/>
    <junction id="J6" type="traffic_light" x="7.53" y="-20.41" incLanes="E3_0 E2_0" intLanes=":J6_0_0 :J6_1_0 :J6_2_0 :J6_3_0" shape="14.70,-20.17 14.80,-23.37 12.60,-23.89 11.84,-24.47 11.30,-25.26 10.99,-26.27 10.92,-27.50 7.72,-27.58 7.22,-25.39 6.65,-24.64 5.86,-24.12 4.86,-23.82 3.64,-23.76 3.52,-20.56 5.73,-20.04 6.49,-19.46 7.02,-18.66 7.32,-17.66 7.39,-16.44 10.59,-16.33 11.11,-18.52 11.69,-19.28 12.48,-19.80 13.48,-20.10">
        <request index="0" response="0000" foes="0100" cont="0"/>
        <request index="1" response="0000" foes="1100" cont="0"/>
        <request index="2" response="0011" foes="0011" cont="0"/>
        <request index="3" response="0010" foes="0010" cont="0"/>
    </junction>
    <junction id="J7" type="dead_end" x="9.73" y="-104.82" incLanes="" intLanes="" shape="9.73,-104.82 12.93,-104.74"/>
    <junction id="J8" type="dead_end" x="5.15" y="48.74" incLanes="E4_0" intLanes="" shape="8.35,48.85 5.15,48.74"/>

    <connection from="E2" to="E2.84" fromLane="0" toLane="0" via=":J6_2_0" tl="J6" linkIndex="2" dir="s" state="o"/>
    <connection from="E2" to="E4" fromLane="0" toLane="0" via=":J6_3_0" tl="J6" linkIndex="3" dir="l" state="o"/>
    <connection from="E3" to="E2.84" fromLane="0" toLane="0" via=":J6_0_0" tl="J6" linkIndex="0" dir="r" state="O"/>
    <connection from="E3" to="E4" fromLane="0" toLane="0" via=":J6_1_0" tl="J6" linkIndex="1" dir="s" state="O"/>

    <connection from=":J6_0" to="E2.84" fromLane="0" toLane="0" dir="r" state="M"/>
    <connection from=":J6_1" to="E4" fromLane="0" toLane="0" dir="s" state="M"/>
    <connection from=":J6_2" to="E2.84" fromLane="0" toLane="0" dir="s" state="M"/>
    <connection from=":J6_3" to="E4" fromLane="0" toLane="0" dir="l" state="M"/>

</net>
