<?xml version="1.0" encoding="UTF-8"?>

<!-- generated on 2026-03-27T17:42:50.756303+05:00 by Eclipse SUMO sumo 1.26.0
-->

<sumoConfiguration xmlns:xsi="http://www.w3.org/2001/XMLSchema-instance" xsi:noNamespaceSchemaLocation="http://sumo.dlr.de/xsd/sumoConfiguration.xsd">

    <input>
        <net-file value="Test1.net.xml"/>
        <route-files value="Test1.rou.xml"/>
        <additional-files value="Test1.add.xml"/>
    </input>

</sumoConfiguration>
