<?xml version="1.0" encoding="UTF-8"?>

<!-- generated on 2026-03-13T15:48:06.856473+05:00 by Eclipse SUMO netedit 1.26.0
-->

<routes xmlns:xsi="http://www.w3.org/2001/XMLSchema-instance" xsi:noNamespaceSchemaLocation="http://sumo.dlr.de/xsd/routes_file.xsd">
    <!-- Vehicles, persons and containers (sorted by depart) -->
    <trip id="t_0" depart="0.00" from="E2" to="E2.84"/>
    <trip id="t_1" depart="0.00" from="E2" to="E4"/>
    <trip id="t_2" depart="0.00" from="E2" to="E2.84"/>
    <trip id="t_3" depart="0.00" from="E3" to="E4"/>
    <flow id="f_0" begin="0.00" end="3600.00" perHour="1800.00" from="E2" to="E2.84"/>
    <trip id="t_4" depart="80.00" from="E3" to="E4"/>
</routes>
