<?xml version="1.0" encoding="UTF-8"?>

<!-- generated on 2026-03-13T12:53:26.645028+05:00 by Eclipse SUMO netedit 1.26.0
-->

<additional xmlns:xsi="http://www.w3.org/2001/XMLSchema-instance" xsi:noNamespaceSchemaLocation="http://sumo.dlr.de/xsd/additional_file.xsd">
    <!-- Detectors -->
    <laneAreaDetector id="det_south" lane="E3_0" pos="-50" endPos="-1" file="NUL"/>
    <laneAreaDetector id="det_west" lane="E2_0" pos="-50" endPos="-1" file="NUL"/>
</additional>
